*SPEF "ieee 1481-1999"
*DESIGN "wrapped_wishbone_demo"
*DATE "11:11:11 Fri 11 11, 1111"
*VENDOR "OpenRCX"
*PROGRAM "Parallel Extraction"
*VERSION "1.0"
*DESIGN_FLOW "NAME_SCOPE LOCAL" "PIN_CAP NONE"
*DIVIDER /
*DELIMITER :
*BUS_DELIMITER []
*T_UNIT 1 NS
*C_UNIT 1 PF
*R_UNIT 1 OHM
*L_UNIT 1 HENRY

*NAME_MAP
*1 active
*2 io_in[0]
*3 io_in[10]
*4 io_in[11]
*5 io_in[12]
*6 io_in[13]
*7 io_in[14]
*8 io_in[15]
*9 io_in[16]
*10 io_in[17]
*11 io_in[18]
*12 io_in[19]
*13 io_in[1]
*14 io_in[20]
*15 io_in[21]
*16 io_in[22]
*17 io_in[23]
*18 io_in[24]
*19 io_in[25]
*20 io_in[26]
*21 io_in[27]
*22 io_in[28]
*23 io_in[29]
*24 io_in[2]
*25 io_in[30]
*26 io_in[31]
*27 io_in[32]
*28 io_in[33]
*29 io_in[34]
*30 io_in[35]
*31 io_in[36]
*32 io_in[37]
*33 io_in[3]
*34 io_in[4]
*35 io_in[5]
*36 io_in[6]
*37 io_in[7]
*38 io_in[8]
*39 io_in[9]
*40 io_oeb[0]
*41 io_oeb[10]
*42 io_oeb[11]
*43 io_oeb[12]
*44 io_oeb[13]
*45 io_oeb[14]
*46 io_oeb[15]
*47 io_oeb[16]
*48 io_oeb[17]
*49 io_oeb[18]
*50 io_oeb[19]
*51 io_oeb[1]
*52 io_oeb[20]
*53 io_oeb[21]
*54 io_oeb[22]
*55 io_oeb[23]
*56 io_oeb[24]
*57 io_oeb[25]
*58 io_oeb[26]
*59 io_oeb[27]
*60 io_oeb[28]
*61 io_oeb[29]
*62 io_oeb[2]
*63 io_oeb[30]
*64 io_oeb[31]
*65 io_oeb[32]
*66 io_oeb[33]
*67 io_oeb[34]
*68 io_oeb[35]
*69 io_oeb[36]
*70 io_oeb[37]
*71 io_oeb[3]
*72 io_oeb[4]
*73 io_oeb[5]
*74 io_oeb[6]
*75 io_oeb[7]
*76 io_oeb[8]
*77 io_oeb[9]
*78 io_out[0]
*79 io_out[10]
*80 io_out[11]
*81 io_out[12]
*82 io_out[13]
*83 io_out[14]
*84 io_out[15]
*85 io_out[16]
*86 io_out[17]
*87 io_out[18]
*88 io_out[19]
*89 io_out[1]
*90 io_out[20]
*91 io_out[21]
*92 io_out[22]
*93 io_out[23]
*94 io_out[24]
*95 io_out[25]
*96 io_out[26]
*97 io_out[27]
*98 io_out[28]
*99 io_out[29]
*100 io_out[2]
*101 io_out[30]
*102 io_out[31]
*103 io_out[32]
*104 io_out[33]
*105 io_out[34]
*106 io_out[35]
*107 io_out[36]
*108 io_out[37]
*109 io_out[3]
*110 io_out[4]
*111 io_out[5]
*112 io_out[6]
*113 io_out[7]
*114 io_out[8]
*115 io_out[9]
*118 wb_clk_i
*119 wb_rst_i
*120 wbs_ack_o
*121 wbs_adr_i[0]
*122 wbs_adr_i[10]
*123 wbs_adr_i[11]
*124 wbs_adr_i[12]
*125 wbs_adr_i[13]
*126 wbs_adr_i[14]
*127 wbs_adr_i[15]
*128 wbs_adr_i[16]
*129 wbs_adr_i[17]
*130 wbs_adr_i[18]
*131 wbs_adr_i[19]
*132 wbs_adr_i[1]
*133 wbs_adr_i[20]
*134 wbs_adr_i[21]
*135 wbs_adr_i[22]
*136 wbs_adr_i[23]
*137 wbs_adr_i[24]
*138 wbs_adr_i[25]
*139 wbs_adr_i[26]
*140 wbs_adr_i[27]
*141 wbs_adr_i[28]
*142 wbs_adr_i[29]
*143 wbs_adr_i[2]
*144 wbs_adr_i[30]
*145 wbs_adr_i[31]
*146 wbs_adr_i[3]
*147 wbs_adr_i[4]
*148 wbs_adr_i[5]
*149 wbs_adr_i[6]
*150 wbs_adr_i[7]
*151 wbs_adr_i[8]
*152 wbs_adr_i[9]
*153 wbs_cyc_i
*154 wbs_dat_i[0]
*155 wbs_dat_i[10]
*156 wbs_dat_i[11]
*157 wbs_dat_i[12]
*158 wbs_dat_i[13]
*159 wbs_dat_i[14]
*160 wbs_dat_i[15]
*161 wbs_dat_i[16]
*162 wbs_dat_i[17]
*163 wbs_dat_i[18]
*164 wbs_dat_i[19]
*165 wbs_dat_i[1]
*166 wbs_dat_i[20]
*167 wbs_dat_i[21]
*168 wbs_dat_i[22]
*169 wbs_dat_i[23]
*170 wbs_dat_i[24]
*171 wbs_dat_i[25]
*172 wbs_dat_i[26]
*173 wbs_dat_i[27]
*174 wbs_dat_i[28]
*175 wbs_dat_i[29]
*176 wbs_dat_i[2]
*177 wbs_dat_i[30]
*178 wbs_dat_i[31]
*179 wbs_dat_i[3]
*180 wbs_dat_i[4]
*181 wbs_dat_i[5]
*182 wbs_dat_i[6]
*183 wbs_dat_i[7]
*184 wbs_dat_i[8]
*185 wbs_dat_i[9]
*186 wbs_dat_o[0]
*187 wbs_dat_o[10]
*188 wbs_dat_o[11]
*189 wbs_dat_o[12]
*190 wbs_dat_o[13]
*191 wbs_dat_o[14]
*192 wbs_dat_o[15]
*193 wbs_dat_o[16]
*194 wbs_dat_o[17]
*195 wbs_dat_o[18]
*196 wbs_dat_o[19]
*197 wbs_dat_o[1]
*198 wbs_dat_o[20]
*199 wbs_dat_o[21]
*200 wbs_dat_o[22]
*201 wbs_dat_o[23]
*202 wbs_dat_o[24]
*203 wbs_dat_o[25]
*204 wbs_dat_o[26]
*205 wbs_dat_o[27]
*206 wbs_dat_o[28]
*207 wbs_dat_o[29]
*208 wbs_dat_o[2]
*209 wbs_dat_o[30]
*210 wbs_dat_o[31]
*211 wbs_dat_o[3]
*212 wbs_dat_o[4]
*213 wbs_dat_o[5]
*214 wbs_dat_o[6]
*215 wbs_dat_o[7]
*216 wbs_dat_o[8]
*217 wbs_dat_o[9]
*218 wbs_sel_i[0]
*219 wbs_sel_i[1]
*220 wbs_sel_i[2]
*221 wbs_sel_i[3]
*222 wbs_stb_i
*223 wbs_we_i
*224 _000_
*225 _001_
*226 _002_
*227 _003_
*228 _004_
*229 _005_
*230 _006_
*231 _007_
*232 _008_
*233 _009_
*234 _010_
*235 _011_
*236 _012_
*237 _013_
*238 _014_
*239 _015_
*240 _016_
*241 _017_
*242 _018_
*243 _019_
*244 _020_
*245 _021_
*246 _022_
*247 _023_
*248 _024_
*249 _025_
*250 _026_
*251 _027_
*252 _028_
*253 _029_
*254 _030_
*255 _031_
*256 _032_
*257 _033_
*258 _034_
*259 _035_
*260 _036_
*261 _037_
*262 _038_
*263 _039_
*264 _040_
*265 _041_
*266 _042_
*267 _043_
*268 _044_
*269 _045_
*270 _046_
*271 _047_
*272 _048_
*273 _049_
*274 _050_
*275 _051_
*276 _052_
*277 _053_
*278 _054_
*279 _055_
*280 _056_
*281 _057_
*282 _058_
*283 _059_
*284 _060_
*285 _061_
*286 _062_
*287 _063_
*288 _064_
*289 _065_
*290 _066_
*291 _067_
*292 _068_
*293 _069_
*294 _070_
*295 _071_
*296 _072_
*297 _073_
*298 _074_
*299 _075_
*300 _076_
*301 _077_
*302 _078_
*303 _079_
*304 _080_
*305 _081_
*306 _082_
*307 _083_
*308 _084_
*309 _085_
*310 _086_
*311 _087_
*312 _088_
*313 _089_
*314 _090_
*315 _091_
*316 _092_
*317 _093_
*318 _094_
*319 _095_
*320 _096_
*321 _097_
*322 _098_
*323 _099_
*324 _100_
*325 _101_
*326 _102_
*327 _103_
*328 _104_
*329 _105_
*330 _106_
*331 _107_
*332 _108_
*333 _109_
*334 _110_
*335 _111_
*336 _112_
*337 _113_
*338 _114_
*339 _115_
*340 _116_
*341 _117_
*342 _118_
*343 _119_
*344 _120_
*345 _121_
*346 _122_
*347 _123_
*348 _124_
*349 _125_
*350 _126_
*351 _127_
*352 _128_
*353 _129_
*354 _130_
*355 _131_
*356 _132_
*357 _133_
*358 _134_
*359 _135_
*360 _136_
*361 _137_
*362 _138_
*363 _139_
*364 _140_
*365 _141_
*366 _142_
*367 _143_
*368 _144_
*369 _145_
*370 _146_
*371 _147_
*372 _148_
*373 _149_
*374 _150_
*375 _151_
*376 _152_
*377 _153_
*378 _154_
*379 _155_
*380 _156_
*381 _157_
*382 _158_
*383 _159_
*384 _160_
*385 _161_
*386 _162_
*387 _163_
*388 _164_
*389 _165_
*390 _166_
*391 _167_
*392 _168_
*393 _169_
*394 _170_
*395 _171_
*396 _172_
*397 _173_
*398 _174_
*399 _175_
*400 _176_
*401 _177_
*402 _178_
*403 _179_
*404 _180_
*405 _181_
*406 _182_
*407 _183_
*408 _184_
*409 _185_
*410 _186_
*411 _187_
*412 _188_
*413 _189_
*414 _190_
*415 _191_
*416 _192_
*417 _193_
*418 _194_
*419 _195_
*420 _196_
*421 _197_
*422 _198_
*423 _199_
*424 _200_
*425 _201_
*426 _202_
*427 _203_
*428 _204_
*429 _205_
*430 _206_
*431 _207_
*432 _208_
*433 _209_
*434 _210_
*435 _211_
*436 _212_
*437 _213_
*438 _214_
*439 _215_
*440 _216_
*441 _217_
*442 _218_
*443 _219_
*444 _220_
*445 _221_
*446 _222_
*447 _223_
*448 _224_
*449 _225_
*450 _226_
*451 _227_
*452 _228_
*453 _229_
*454 _230_
*455 _231_
*456 _232_
*457 _233_
*458 _234_
*459 _235_
*460 _236_
*461 _237_
*462 _238_
*463 _239_
*464 _240_
*465 _241_
*466 _242_
*467 _243_
*468 _244_
*469 _245_
*470 _246_
*471 _247_
*472 _248_
*473 _249_
*474 _250_
*475 _251_
*476 _252_
*477 _253_
*478 _254_
*479 _255_
*480 _256_
*481 _257_
*482 _258_
*483 _259_
*484 _260_
*485 _261_
*486 _262_
*487 _263_
*488 _264_
*489 _265_
*490 _266_
*491 _267_
*492 _268_
*493 _269_
*494 _270_
*495 _271_
*496 _272_
*497 _273_
*498 _274_
*499 _275_
*500 _276_
*501 _277_
*502 _278_
*503 _279_
*504 _280_
*505 _281_
*506 _282_
*507 _283_
*508 _284_
*509 _285_
*510 _286_
*511 _287_
*512 _288_
*513 _289_
*514 _290_
*515 _291_
*516 _292_
*517 _293_
*518 _294_
*519 _295_
*520 _296_
*521 _297_
*522 _298_
*523 _299_
*524 _300_
*525 _301_
*526 _302_
*527 _303_
*528 _304_
*529 _305_
*530 _306_
*531 _307_
*532 _308_
*533 _309_
*534 _310_
*535 _311_
*536 _312_
*537 _313_
*538 _314_
*539 _315_
*540 _316_
*541 _317_
*542 _318_
*543 _319_
*544 _320_
*545 _321_
*546 _322_
*547 _323_
*548 _324_
*549 _325_
*550 _326_
*551 _327_
*552 _328_
*553 _329_
*554 _330_
*555 _331_
*556 _332_
*557 _333_
*558 _334_
*559 _335_
*560 _336_
*561 _337_
*562 _338_
*563 _339_
*564 _340_
*565 _341_
*566 _342_
*567 _343_
*568 _344_
*569 _345_
*570 _346_
*571 _347_
*572 _348_
*573 _349_
*574 _350_
*575 _351_
*576 _352_
*577 _353_
*578 _354_
*579 _355_
*580 _356_
*581 _357_
*582 _358_
*583 _359_
*584 _360_
*585 _361_
*586 _362_
*587 _363_
*588 _364_
*589 _365_
*590 _366_
*591 _367_
*592 _368_
*593 _369_
*594 _370_
*595 _371_
*596 _372_
*597 _373_
*598 _374_
*599 _375_
*600 _376_
*601 _377_
*602 _378_
*603 _379_
*604 _380_
*605 _381_
*606 _382_
*607 _383_
*608 _384_
*609 _385_
*610 _386_
*611 _387_
*612 _388_
*613 _389_
*614 _390_
*615 _391_
*616 _392_
*617 _393_
*618 _394_
*619 clknet_0_wb_clk_i
*620 clknet_1_0_0_wb_clk_i
*621 clknet_1_1_0_wb_clk_i
*622 net1
*623 net10
*624 net11
*625 net12
*626 net13
*627 net14
*628 net15
*629 net16
*630 net17
*631 net18
*632 net19
*633 net2
*634 net20
*635 net21
*636 net22
*637 net23
*638 net24
*639 net25
*640 net26
*641 net27
*642 net28
*643 net29
*644 net3
*645 net30
*646 net31
*647 net32
*648 net33
*649 net34
*650 net35
*651 net36
*652 net37
*653 net38
*654 net39
*655 net4
*656 net40
*657 net41
*658 net42
*659 net43
*660 net44
*661 net45
*662 net46
*663 net47
*664 net48
*665 net5
*666 net6
*667 net7
*668 net8
*669 net9
*670 wb_buttons_leds\.leds\[0\]
*671 wb_buttons_leds\.leds\[1\]
*672 wb_buttons_leds\.leds\[2\]
*673 wb_buttons_leds\.leds\[3\]
*674 wb_buttons_leds\.leds\[4\]
*675 wb_buttons_leds\.leds\[5\]
*676 wb_buttons_leds\.leds\[6\]
*677 wb_buttons_leds\.leds\[7\]
*678 wb_buttons_leds\.o_wb_ack
*679 wb_buttons_leds\.o_wb_data\[0\]
*680 wb_buttons_leds\.o_wb_data\[1\]
*681 wb_buttons_leds\.o_wb_data\[2\]
*682 wb_buttons_leds\.o_wb_data\[3\]
*683 wb_buttons_leds\.o_wb_data\[4\]
*684 wb_buttons_leds\.o_wb_data\[5\]
*685 wb_buttons_leds\.o_wb_data\[6\]
*686 wb_buttons_leds\.o_wb_data\[7\]
*687 FILLER_0_105
*688 FILLER_0_111
*689 FILLER_0_113
*690 FILLER_0_120
*691 FILLER_0_127
*692 FILLER_0_13
*693 FILLER_0_139
*694 FILLER_0_141
*695 FILLER_0_164
*696 FILLER_0_172
*697 FILLER_0_186
*698 FILLER_0_24
*699 FILLER_0_50
*700 FILLER_0_60
*701 FILLER_0_68
*702 FILLER_0_80
*703 FILLER_0_88
*704 FILLER_0_94
*705 FILLER_10_101
*706 FILLER_10_105
*707 FILLER_10_112
*708 FILLER_10_124
*709 FILLER_10_136
*710 FILLER_10_141
*711 FILLER_10_153
*712 FILLER_10_186
*713 FILLER_10_24
*714 FILLER_10_32
*715 FILLER_10_39
*716 FILLER_10_51
*717 FILLER_10_63
*718 FILLER_10_75
*719 FILLER_10_83
*720 FILLER_10_85
*721 FILLER_10_97
*722 FILLER_11_103
*723 FILLER_11_111
*724 FILLER_11_113
*725 FILLER_11_117
*726 FILLER_11_129
*727 FILLER_11_141
*728 FILLER_11_153
*729 FILLER_11_164
*730 FILLER_11_169
*731 FILLER_11_174
*732 FILLER_11_181
*733 FILLER_11_189
*734 FILLER_11_3
*735 FILLER_11_34
*736 FILLER_11_46
*737 FILLER_11_54
*738 FILLER_11_57
*739 FILLER_11_65
*740 FILLER_11_77
*741 FILLER_11_81
*742 FILLER_11_9
*743 FILLER_11_91
*744 FILLER_12_10
*745 FILLER_12_102
*746 FILLER_12_111
*747 FILLER_12_136
*748 FILLER_12_141
*749 FILLER_12_153
*750 FILLER_12_16
*751 FILLER_12_186
*752 FILLER_12_20
*753 FILLER_12_3
*754 FILLER_12_32
*755 FILLER_12_44
*756 FILLER_12_56
*757 FILLER_12_80
*758 FILLER_13_102
*759 FILLER_13_110
*760 FILLER_13_113
*761 FILLER_13_125
*762 FILLER_13_137
*763 FILLER_13_14
*764 FILLER_13_149
*765 FILLER_13_161
*766 FILLER_13_167
*767 FILLER_13_169
*768 FILLER_13_178
*769 FILLER_13_185
*770 FILLER_13_189
*771 FILLER_13_19
*772 FILLER_13_31
*773 FILLER_13_43
*774 FILLER_13_55
*775 FILLER_13_57
*776 FILLER_13_6
*777 FILLER_13_69
*778 FILLER_13_81
*779 FILLER_13_93
*780 FILLER_14_114
*781 FILLER_14_126
*782 FILLER_14_138
*783 FILLER_14_141
*784 FILLER_14_15
*785 FILLER_14_153
*786 FILLER_14_186
*787 FILLER_14_27
*788 FILLER_14_29
*789 FILLER_14_3
*790 FILLER_14_41
*791 FILLER_14_53
*792 FILLER_14_65
*793 FILLER_14_77
*794 FILLER_14_83
*795 FILLER_14_85
*796 FILLER_14_97
*797 FILLER_15_106
*798 FILLER_15_113
*799 FILLER_15_125
*800 FILLER_15_137
*801 FILLER_15_14
*802 FILLER_15_149
*803 FILLER_15_161
*804 FILLER_15_167
*805 FILLER_15_169
*806 FILLER_15_173
*807 FILLER_15_180
*808 FILLER_15_188
*809 FILLER_15_26
*810 FILLER_15_3
*811 FILLER_15_38
*812 FILLER_15_50
*813 FILLER_15_57
*814 FILLER_15_69
*815 FILLER_15_7
*816 FILLER_15_89
*817 FILLER_15_97
*818 FILLER_16_119
*819 FILLER_16_131
*820 FILLER_16_139
*821 FILLER_16_141
*822 FILLER_16_153
*823 FILLER_16_165
*824 FILLER_16_177
*825 FILLER_16_184
*826 FILLER_16_24
*827 FILLER_16_32
*828 FILLER_16_44
*829 FILLER_16_56
*830 FILLER_16_68
*831 FILLER_16_80
*832 FILLER_16_85
*833 FILLER_16_97
*834 FILLER_17_102
*835 FILLER_17_110
*836 FILLER_17_113
*837 FILLER_17_117
*838 FILLER_17_13
*839 FILLER_17_139
*840 FILLER_17_151
*841 FILLER_17_163
*842 FILLER_17_167
*843 FILLER_17_169
*844 FILLER_17_181
*845 FILLER_17_186
*846 FILLER_17_38
*847 FILLER_17_50
*848 FILLER_17_57
*849 FILLER_17_6
*850 FILLER_17_69
*851 FILLER_17_73
*852 FILLER_17_90
*853 FILLER_18_100
*854 FILLER_18_115
*855 FILLER_18_12
*856 FILLER_18_122
*857 FILLER_18_134
*858 FILLER_18_141
*859 FILLER_18_153
*860 FILLER_18_186
*861 FILLER_18_19
*862 FILLER_18_27
*863 FILLER_18_3
*864 FILLER_18_32
*865 FILLER_18_44
*866 FILLER_18_56
*867 FILLER_18_68
*868 FILLER_18_79
*869 FILLER_18_83
*870 FILLER_18_85
*871 FILLER_18_93
*872 FILLER_19_108
*873 FILLER_19_113
*874 FILLER_19_125
*875 FILLER_19_13
*876 FILLER_19_137
*877 FILLER_19_149
*878 FILLER_19_161
*879 FILLER_19_167
*880 FILLER_19_169
*881 FILLER_19_174
*882 FILLER_19_181
*883 FILLER_19_189
*884 FILLER_19_25
*885 FILLER_19_31
*886 FILLER_19_35
*887 FILLER_19_47
*888 FILLER_19_55
*889 FILLER_19_57
*890 FILLER_19_6
*891 FILLER_19_69
*892 FILLER_19_81
*893 FILLER_19_89
*894 FILLER_1_105
*895 FILLER_1_111
*896 FILLER_1_113
*897 FILLER_1_117
*898 FILLER_1_139
*899 FILLER_1_164
*900 FILLER_1_172
*901 FILLER_1_186
*902 FILLER_1_26
*903 FILLER_1_3
*904 FILLER_1_30
*905 FILLER_1_52
*906 FILLER_1_57
*907 FILLER_1_66
*908 FILLER_1_91
*909 FILLER_1_99
*910 FILLER_20_103
*911 FILLER_20_115
*912 FILLER_20_127
*913 FILLER_20_139
*914 FILLER_20_141
*915 FILLER_20_153
*916 FILLER_20_165
*917 FILLER_20_177
*918 FILLER_20_184
*919 FILLER_20_24
*920 FILLER_20_29
*921 FILLER_20_38
*922 FILLER_20_45
*923 FILLER_20_57
*924 FILLER_20_63
*925 FILLER_20_67
*926 FILLER_20_75
*927 FILLER_20_79
*928 FILLER_20_83
*929 FILLER_20_85
*930 FILLER_20_96
*931 FILLER_21_102
*932 FILLER_21_110
*933 FILLER_21_113
*934 FILLER_21_12
*935 FILLER_21_122
*936 FILLER_21_134
*937 FILLER_21_146
*938 FILLER_21_158
*939 FILLER_21_166
*940 FILLER_21_169
*941 FILLER_21_181
*942 FILLER_21_189
*943 FILLER_21_24
*944 FILLER_21_3
*945 FILLER_21_48
*946 FILLER_21_60
*947 FILLER_21_85
*948 FILLER_21_93
*949 FILLER_22_101
*950 FILLER_22_121
*951 FILLER_22_133
*952 FILLER_22_139
*953 FILLER_22_14
*954 FILLER_22_141
*955 FILLER_22_153
*956 FILLER_22_165
*957 FILLER_22_177
*958 FILLER_22_18
*959 FILLER_22_186
*960 FILLER_22_26
*961 FILLER_22_29
*962 FILLER_22_41
*963 FILLER_22_53
*964 FILLER_22_6
*965 FILLER_22_65
*966 FILLER_22_73
*967 FILLER_22_80
*968 FILLER_22_93
*969 FILLER_23_108
*970 FILLER_23_11
*971 FILLER_23_122
*972 FILLER_23_134
*973 FILLER_23_146
*974 FILLER_23_158
*975 FILLER_23_166
*976 FILLER_23_169
*977 FILLER_23_181
*978 FILLER_23_186
*979 FILLER_23_3
*980 FILLER_23_36
*981 FILLER_23_48
*982 FILLER_23_57
*983 FILLER_23_62
*984 FILLER_23_7
*985 FILLER_23_70
*986 FILLER_23_87
*987 FILLER_24_115
*988 FILLER_24_135
*989 FILLER_24_139
*990 FILLER_24_141
*991 FILLER_24_153
*992 FILLER_24_16
*993 FILLER_24_186
*994 FILLER_24_20
*995 FILLER_24_24
*996 FILLER_24_3
*997 FILLER_24_32
*998 FILLER_24_44
*999 FILLER_24_55
*1000 FILLER_24_80
*1001 FILLER_24_85
*1002 FILLER_24_9
*1003 FILLER_24_90
*1004 FILLER_25_108
*1005 FILLER_25_113
*1006 FILLER_25_125
*1007 FILLER_25_137
*1008 FILLER_25_149
*1009 FILLER_25_161
*1010 FILLER_25_167
*1011 FILLER_25_169
*1012 FILLER_25_177
*1013 FILLER_25_181
*1014 FILLER_25_189
*1015 FILLER_25_24
*1016 FILLER_25_36
*1017 FILLER_25_48
*1018 FILLER_25_57
*1019 FILLER_25_63
*1020 FILLER_25_70
*1021 FILLER_25_78
*1022 FILLER_25_84
*1023 FILLER_26_101
*1024 FILLER_26_105
*1025 FILLER_26_116
*1026 FILLER_26_123
*1027 FILLER_26_135
*1028 FILLER_26_139
*1029 FILLER_26_144
*1030 FILLER_26_15
*1031 FILLER_26_156
*1032 FILLER_26_168
*1033 FILLER_26_180
*1034 FILLER_26_185
*1035 FILLER_26_189
*1036 FILLER_26_27
*1037 FILLER_26_29
*1038 FILLER_26_3
*1039 FILLER_26_41
*1040 FILLER_26_53
*1041 FILLER_26_65
*1042 FILLER_26_77
*1043 FILLER_26_83
*1044 FILLER_26_85
*1045 FILLER_27_108
*1046 FILLER_27_122
*1047 FILLER_27_133
*1048 FILLER_27_158
*1049 FILLER_27_166
*1050 FILLER_27_169
*1051 FILLER_27_181
*1052 FILLER_27_186
*1053 FILLER_27_25
*1054 FILLER_27_37
*1055 FILLER_27_49
*1056 FILLER_27_55
*1057 FILLER_27_57
*1058 FILLER_27_6
*1059 FILLER_27_69
*1060 FILLER_27_77
*1061 FILLER_27_88
*1062 FILLER_28_101
*1063 FILLER_28_105
*1064 FILLER_28_115
*1065 FILLER_28_135
*1066 FILLER_28_139
*1067 FILLER_28_141
*1068 FILLER_28_15
*1069 FILLER_28_153
*1070 FILLER_28_186
*1071 FILLER_28_27
*1072 FILLER_28_3
*1073 FILLER_28_35
*1074 FILLER_28_47
*1075 FILLER_28_59
*1076 FILLER_28_71
*1077 FILLER_28_78
*1078 FILLER_29_102
*1079 FILLER_29_110
*1080 FILLER_29_113
*1081 FILLER_29_125
*1082 FILLER_29_137
*1083 FILLER_29_149
*1084 FILLER_29_15
*1085 FILLER_29_161
*1086 FILLER_29_167
*1087 FILLER_29_169
*1088 FILLER_29_173
*1089 FILLER_29_177
*1090 FILLER_29_184
*1091 FILLER_29_22
*1092 FILLER_29_3
*1093 FILLER_29_33
*1094 FILLER_29_40
*1095 FILLER_29_52
*1096 FILLER_29_64
*1097 FILLER_29_85
*1098 FILLER_29_95
*1099 FILLER_2_108
*1100 FILLER_2_116
*1101 FILLER_2_120
*1102 FILLER_2_13
*1103 FILLER_2_132
*1104 FILLER_2_144
*1105 FILLER_2_151
*1106 FILLER_2_159
*1107 FILLER_2_186
*1108 FILLER_2_24
*1109 FILLER_2_39
*1110 FILLER_2_46
*1111 FILLER_2_53
*1112 FILLER_2_67
*1113 FILLER_2_74
*1114 FILLER_2_82
*1115 FILLER_2_85
*1116 FILLER_2_97
*1117 FILLER_30_101
*1118 FILLER_30_113
*1119 FILLER_30_125
*1120 FILLER_30_137
*1121 FILLER_30_141
*1122 FILLER_30_15
*1123 FILLER_30_153
*1124 FILLER_30_165
*1125 FILLER_30_177
*1126 FILLER_30_181
*1127 FILLER_30_189
*1128 FILLER_30_27
*1129 FILLER_30_3
*1130 FILLER_30_50
*1131 FILLER_30_62
*1132 FILLER_30_68
*1133 FILLER_30_77
*1134 FILLER_30_8
*1135 FILLER_30_83
*1136 FILLER_30_85
*1137 FILLER_30_89
*1138 FILLER_30_93
*1139 FILLER_31_103
*1140 FILLER_31_111
*1141 FILLER_31_113
*1142 FILLER_31_125
*1143 FILLER_31_137
*1144 FILLER_31_149
*1145 FILLER_31_161
*1146 FILLER_31_167
*1147 FILLER_31_169
*1148 FILLER_31_173
*1149 FILLER_31_177
*1150 FILLER_31_184
*1151 FILLER_31_24
*1152 FILLER_31_32
*1153 FILLER_31_36
*1154 FILLER_31_48
*1155 FILLER_31_57
*1156 FILLER_31_69
*1157 FILLER_31_77
*1158 FILLER_31_89
*1159 FILLER_31_97
*1160 FILLER_32_101
*1161 FILLER_32_110
*1162 FILLER_32_13
*1163 FILLER_32_130
*1164 FILLER_32_138
*1165 FILLER_32_141
*1166 FILLER_32_153
*1167 FILLER_32_186
*1168 FILLER_32_20
*1169 FILLER_32_32
*1170 FILLER_32_44
*1171 FILLER_32_56
*1172 FILLER_32_6
*1173 FILLER_32_68
*1174 FILLER_32_76
*1175 FILLER_32_80
*1176 FILLER_32_85
*1177 FILLER_32_97
*1178 FILLER_33_103
*1179 FILLER_33_11
*1180 FILLER_33_111
*1181 FILLER_33_121
*1182 FILLER_33_133
*1183 FILLER_33_145
*1184 FILLER_33_157
*1185 FILLER_33_165
*1186 FILLER_33_169
*1187 FILLER_33_175
*1188 FILLER_33_179
*1189 FILLER_33_186
*1190 FILLER_33_3
*1191 FILLER_33_34
*1192 FILLER_33_46
*1193 FILLER_33_54
*1194 FILLER_33_57
*1195 FILLER_33_69
*1196 FILLER_33_77
*1197 FILLER_33_94
*1198 FILLER_33_98
*1199 FILLER_34_103
*1200 FILLER_34_112
*1201 FILLER_34_124
*1202 FILLER_34_136
*1203 FILLER_34_141
*1204 FILLER_34_153
*1205 FILLER_34_165
*1206 FILLER_34_177
*1207 FILLER_34_18
*1208 FILLER_34_189
*1209 FILLER_34_26
*1210 FILLER_34_29
*1211 FILLER_34_41
*1212 FILLER_34_53
*1213 FILLER_34_6
*1214 FILLER_34_65
*1215 FILLER_34_77
*1216 FILLER_34_83
*1217 FILLER_34_90
*1218 FILLER_34_98
*1219 FILLER_35_109
*1220 FILLER_35_113
*1221 FILLER_35_131
*1222 FILLER_35_158
*1223 FILLER_35_16
*1224 FILLER_35_166
*1225 FILLER_35_169
*1226 FILLER_35_175
*1227 FILLER_35_179
*1228 FILLER_35_186
*1229 FILLER_35_28
*1230 FILLER_35_3
*1231 FILLER_35_40
*1232 FILLER_35_52
*1233 FILLER_35_57
*1234 FILLER_35_65
*1235 FILLER_35_74
*1236 FILLER_35_86
*1237 FILLER_35_9
*1238 FILLER_35_92
*1239 FILLER_35_97
*1240 FILLER_36_103
*1241 FILLER_36_111
*1242 FILLER_36_116
*1243 FILLER_36_124
*1244 FILLER_36_129
*1245 FILLER_36_136
*1246 FILLER_36_144
*1247 FILLER_36_156
*1248 FILLER_36_164
*1249 FILLER_36_186
*1250 FILLER_36_24
*1251 FILLER_36_29
*1252 FILLER_36_41
*1253 FILLER_36_53
*1254 FILLER_36_65
*1255 FILLER_36_77
*1256 FILLER_36_83
*1257 FILLER_36_85
*1258 FILLER_36_93
*1259 FILLER_37_10
*1260 FILLER_37_108
*1261 FILLER_37_118
*1262 FILLER_37_145
*1263 FILLER_37_152
*1264 FILLER_37_159
*1265 FILLER_37_167
*1266 FILLER_37_169
*1267 FILLER_37_17
*1268 FILLER_37_177
*1269 FILLER_37_183
*1270 FILLER_37_189
*1271 FILLER_37_29
*1272 FILLER_37_3
*1273 FILLER_37_41
*1274 FILLER_37_53
*1275 FILLER_37_57
*1276 FILLER_37_69
*1277 FILLER_37_79
*1278 FILLER_37_94
*1279 FILLER_38_101
*1280 FILLER_38_119
*1281 FILLER_38_126
*1282 FILLER_38_13
*1283 FILLER_38_138
*1284 FILLER_38_141
*1285 FILLER_38_149
*1286 FILLER_38_172
*1287 FILLER_38_180
*1288 FILLER_38_184
*1289 FILLER_38_25
*1290 FILLER_38_29
*1291 FILLER_38_41
*1292 FILLER_38_53
*1293 FILLER_38_6
*1294 FILLER_38_73
*1295 FILLER_38_80
*1296 FILLER_38_85
*1297 FILLER_38_93
*1298 FILLER_39_108
*1299 FILLER_39_117
*1300 FILLER_39_121
*1301 FILLER_39_125
*1302 FILLER_39_132
*1303 FILLER_39_140
*1304 FILLER_39_146
*1305 FILLER_39_158
*1306 FILLER_39_166
*1307 FILLER_39_169
*1308 FILLER_39_177
*1309 FILLER_39_18
*1310 FILLER_39_181
*1311 FILLER_39_189
*1312 FILLER_39_30
*1313 FILLER_39_42
*1314 FILLER_39_54
*1315 FILLER_39_57
*1316 FILLER_39_6
*1317 FILLER_39_69
*1318 FILLER_39_81
*1319 FILLER_39_87
*1320 FILLER_39_91
*1321 FILLER_39_98
*1322 FILLER_3_108
*1323 FILLER_3_113
*1324 FILLER_3_118
*1325 FILLER_3_130
*1326 FILLER_3_137
*1327 FILLER_3_148
*1328 FILLER_3_152
*1329 FILLER_3_156
*1330 FILLER_3_164
*1331 FILLER_3_172
*1332 FILLER_3_186
*1333 FILLER_3_3
*1334 FILLER_3_34
*1335 FILLER_3_41
*1336 FILLER_3_48
*1337 FILLER_3_57
*1338 FILLER_3_63
*1339 FILLER_3_72
*1340 FILLER_3_84
*1341 FILLER_3_9
*1342 FILLER_3_96
*1343 FILLER_40_108
*1344 FILLER_40_116
*1345 FILLER_40_128
*1346 FILLER_40_141
*1347 FILLER_40_153
*1348 FILLER_40_186
*1349 FILLER_40_21
*1350 FILLER_40_27
*1351 FILLER_40_29
*1352 FILLER_40_3
*1353 FILLER_40_41
*1354 FILLER_40_53
*1355 FILLER_40_65
*1356 FILLER_40_77
*1357 FILLER_40_83
*1358 FILLER_40_85
*1359 FILLER_40_9
*1360 FILLER_41_108
*1361 FILLER_41_116
*1362 FILLER_41_122
*1363 FILLER_41_144
*1364 FILLER_41_156
*1365 FILLER_41_160
*1366 FILLER_41_164
*1367 FILLER_41_169
*1368 FILLER_41_173
*1369 FILLER_41_181
*1370 FILLER_41_185
*1371 FILLER_41_189
*1372 FILLER_41_25
*1373 FILLER_41_3
*1374 FILLER_41_32
*1375 FILLER_41_44
*1376 FILLER_41_57
*1377 FILLER_41_65
*1378 FILLER_41_87
*1379 FILLER_41_94
*1380 FILLER_42_108
*1381 FILLER_42_116
*1382 FILLER_42_120
*1383 FILLER_42_124
*1384 FILLER_42_131
*1385 FILLER_42_139
*1386 FILLER_42_141
*1387 FILLER_42_153
*1388 FILLER_42_157
*1389 FILLER_42_161
*1390 FILLER_42_186
*1391 FILLER_42_21
*1392 FILLER_42_27
*1393 FILLER_42_29
*1394 FILLER_42_3
*1395 FILLER_42_39
*1396 FILLER_42_51
*1397 FILLER_42_66
*1398 FILLER_42_73
*1399 FILLER_42_81
*1400 FILLER_42_85
*1401 FILLER_42_9
*1402 FILLER_42_96
*1403 FILLER_43_101
*1404 FILLER_43_105
*1405 FILLER_43_111
*1406 FILLER_43_113
*1407 FILLER_43_135
*1408 FILLER_43_147
*1409 FILLER_43_159
*1410 FILLER_43_167
*1411 FILLER_43_169
*1412 FILLER_43_17
*1413 FILLER_43_173
*1414 FILLER_43_177
*1415 FILLER_43_184
*1416 FILLER_43_21
*1417 FILLER_43_28
*1418 FILLER_43_38
*1419 FILLER_43_48
*1420 FILLER_43_57
*1421 FILLER_43_6
*1422 FILLER_43_69
*1423 FILLER_43_81
*1424 FILLER_43_90
*1425 FILLER_43_97
*1426 FILLER_44_115
*1427 FILLER_44_127
*1428 FILLER_44_139
*1429 FILLER_44_141
*1430 FILLER_44_153
*1431 FILLER_44_186
*1432 FILLER_44_24
*1433 FILLER_44_29
*1434 FILLER_44_39
*1435 FILLER_44_51
*1436 FILLER_44_63
*1437 FILLER_44_75
*1438 FILLER_44_83
*1439 FILLER_44_88
*1440 FILLER_45_103
*1441 FILLER_45_11
*1442 FILLER_45_111
*1443 FILLER_45_113
*1444 FILLER_45_125
*1445 FILLER_45_137
*1446 FILLER_45_149
*1447 FILLER_45_153
*1448 FILLER_45_157
*1449 FILLER_45_164
*1450 FILLER_45_169
*1451 FILLER_45_174
*1452 FILLER_45_181
*1453 FILLER_45_189
*1454 FILLER_45_3
*1455 FILLER_45_36
*1456 FILLER_45_43
*1457 FILLER_45_55
*1458 FILLER_45_57
*1459 FILLER_45_69
*1460 FILLER_45_7
*1461 FILLER_45_83
*1462 FILLER_45_93
*1463 FILLER_46_10
*1464 FILLER_46_103
*1465 FILLER_46_115
*1466 FILLER_46_127
*1467 FILLER_46_139
*1468 FILLER_46_141
*1469 FILLER_46_153
*1470 FILLER_46_158
*1471 FILLER_46_164
*1472 FILLER_46_17
*1473 FILLER_46_186
*1474 FILLER_46_24
*1475 FILLER_46_29
*1476 FILLER_46_3
*1477 FILLER_46_39
*1478 FILLER_46_49
*1479 FILLER_46_61
*1480 FILLER_46_73
*1481 FILLER_46_81
*1482 FILLER_46_85
*1483 FILLER_46_95
*1484 FILLER_47_105
*1485 FILLER_47_11
*1486 FILLER_47_111
*1487 FILLER_47_113
*1488 FILLER_47_125
*1489 FILLER_47_137
*1490 FILLER_47_164
*1491 FILLER_47_172
*1492 FILLER_47_180
*1493 FILLER_47_186
*1494 FILLER_47_3
*1495 FILLER_47_33
*1496 FILLER_47_43
*1497 FILLER_47_55
*1498 FILLER_47_57
*1499 FILLER_47_69
*1500 FILLER_47_81
*1501 FILLER_47_93
*1502 FILLER_48_10
*1503 FILLER_48_109
*1504 FILLER_48_121
*1505 FILLER_48_133
*1506 FILLER_48_139
*1507 FILLER_48_141
*1508 FILLER_48_147
*1509 FILLER_48_151
*1510 FILLER_48_157
*1511 FILLER_48_161
*1512 FILLER_48_17
*1513 FILLER_48_186
*1514 FILLER_48_24
*1515 FILLER_48_29
*1516 FILLER_48_3
*1517 FILLER_48_39
*1518 FILLER_48_51
*1519 FILLER_48_63
*1520 FILLER_48_75
*1521 FILLER_48_83
*1522 FILLER_48_85
*1523 FILLER_48_97
*1524 FILLER_49_110
*1525 FILLER_49_113
*1526 FILLER_49_125
*1527 FILLER_49_13
*1528 FILLER_49_137
*1529 FILLER_49_164
*1530 FILLER_49_169
*1531 FILLER_49_173
*1532 FILLER_49_177
*1533 FILLER_49_184
*1534 FILLER_49_25
*1535 FILLER_49_35
*1536 FILLER_49_47
*1537 FILLER_49_55
*1538 FILLER_49_57
*1539 FILLER_49_6
*1540 FILLER_49_69
*1541 FILLER_49_81
*1542 FILLER_49_93
*1543 FILLER_49_98
*1544 FILLER_4_119
*1545 FILLER_4_13
*1546 FILLER_4_131
*1547 FILLER_4_139
*1548 FILLER_4_141
*1549 FILLER_4_153
*1550 FILLER_4_157
*1551 FILLER_4_161
*1552 FILLER_4_186
*1553 FILLER_4_20
*1554 FILLER_4_29
*1555 FILLER_4_35
*1556 FILLER_4_42
*1557 FILLER_4_50
*1558 FILLER_4_55
*1559 FILLER_4_80
*1560 FILLER_4_85
*1561 FILLER_4_97
*1562 FILLER_50_116
*1563 FILLER_50_128
*1564 FILLER_50_132
*1565 FILLER_50_136
*1566 FILLER_50_141
*1567 FILLER_50_145
*1568 FILLER_50_15
*1569 FILLER_50_152
*1570 FILLER_50_161
*1571 FILLER_50_186
*1572 FILLER_50_27
*1573 FILLER_50_29
*1574 FILLER_50_3
*1575 FILLER_50_41
*1576 FILLER_50_53
*1577 FILLER_50_65
*1578 FILLER_50_77
*1579 FILLER_50_8
*1580 FILLER_50_83
*1581 FILLER_50_85
*1582 FILLER_50_91
*1583 FILLER_51_105
*1584 FILLER_51_111
*1585 FILLER_51_113
*1586 FILLER_51_125
*1587 FILLER_51_137
*1588 FILLER_51_164
*1589 FILLER_51_169
*1590 FILLER_51_174
*1591 FILLER_51_181
*1592 FILLER_51_189
*1593 FILLER_51_24
*1594 FILLER_51_36
*1595 FILLER_51_48
*1596 FILLER_51_57
*1597 FILLER_51_69
*1598 FILLER_51_81
*1599 FILLER_51_93
*1600 FILLER_52_109
*1601 FILLER_52_11
*1602 FILLER_52_121
*1603 FILLER_52_133
*1604 FILLER_52_139
*1605 FILLER_52_141
*1606 FILLER_52_146
*1607 FILLER_52_153
*1608 FILLER_52_178
*1609 FILLER_52_185
*1610 FILLER_52_189
*1611 FILLER_52_23
*1612 FILLER_52_27
*1613 FILLER_52_29
*1614 FILLER_52_3
*1615 FILLER_52_41
*1616 FILLER_52_53
*1617 FILLER_52_65
*1618 FILLER_52_77
*1619 FILLER_52_83
*1620 FILLER_52_85
*1621 FILLER_52_97
*1622 FILLER_53_105
*1623 FILLER_53_111
*1624 FILLER_53_113
*1625 FILLER_53_125
*1626 FILLER_53_137
*1627 FILLER_53_149
*1628 FILLER_53_15
*1629 FILLER_53_155
*1630 FILLER_53_159
*1631 FILLER_53_167
*1632 FILLER_53_172
*1633 FILLER_53_180
*1634 FILLER_53_186
*1635 FILLER_53_27
*1636 FILLER_53_3
*1637 FILLER_53_39
*1638 FILLER_53_51
*1639 FILLER_53_55
*1640 FILLER_53_57
*1641 FILLER_53_69
*1642 FILLER_53_81
*1643 FILLER_53_93
*1644 FILLER_54_109
*1645 FILLER_54_121
*1646 FILLER_54_133
*1647 FILLER_54_139
*1648 FILLER_54_141
*1649 FILLER_54_15
*1650 FILLER_54_153
*1651 FILLER_54_157
*1652 FILLER_54_161
*1653 FILLER_54_186
*1654 FILLER_54_27
*1655 FILLER_54_29
*1656 FILLER_54_3
*1657 FILLER_54_41
*1658 FILLER_54_53
*1659 FILLER_54_59
*1660 FILLER_54_71
*1661 FILLER_54_83
*1662 FILLER_54_85
*1663 FILLER_54_97
*1664 FILLER_55_100
*1665 FILLER_55_11
*1666 FILLER_55_113
*1667 FILLER_55_125
*1668 FILLER_55_137
*1669 FILLER_55_149
*1670 FILLER_55_161
*1671 FILLER_55_167
*1672 FILLER_55_169
*1673 FILLER_55_175
*1674 FILLER_55_186
*1675 FILLER_55_23
*1676 FILLER_55_3
*1677 FILLER_55_35
*1678 FILLER_55_47
*1679 FILLER_55_55
*1680 FILLER_55_57
*1681 FILLER_55_64
*1682 FILLER_55_76
*1683 FILLER_55_88
*1684 FILLER_56_109
*1685 FILLER_56_121
*1686 FILLER_56_133
*1687 FILLER_56_139
*1688 FILLER_56_141
*1689 FILLER_56_15
*1690 FILLER_56_153
*1691 FILLER_56_186
*1692 FILLER_56_27
*1693 FILLER_56_29
*1694 FILLER_56_3
*1695 FILLER_56_41
*1696 FILLER_56_68
*1697 FILLER_56_80
*1698 FILLER_56_85
*1699 FILLER_56_97
*1700 FILLER_57_108
*1701 FILLER_57_113
*1702 FILLER_57_125
*1703 FILLER_57_137
*1704 FILLER_57_149
*1705 FILLER_57_161
*1706 FILLER_57_167
*1707 FILLER_57_169
*1708 FILLER_57_173
*1709 FILLER_57_18
*1710 FILLER_57_180
*1711 FILLER_57_188
*1712 FILLER_57_30
*1713 FILLER_57_42
*1714 FILLER_57_49
*1715 FILLER_57_55
*1716 FILLER_57_6
*1717 FILLER_57_60
*1718 FILLER_57_72
*1719 FILLER_57_84
*1720 FILLER_57_96
*1721 FILLER_58_10
*1722 FILLER_58_109
*1723 FILLER_58_121
*1724 FILLER_58_133
*1725 FILLER_58_139
*1726 FILLER_58_141
*1727 FILLER_58_153
*1728 FILLER_58_16
*1729 FILLER_58_165
*1730 FILLER_58_170
*1731 FILLER_58_177
*1732 FILLER_58_184
*1733 FILLER_58_20
*1734 FILLER_58_3
*1735 FILLER_58_32
*1736 FILLER_58_44
*1737 FILLER_58_56
*1738 FILLER_58_68
*1739 FILLER_58_80
*1740 FILLER_58_85
*1741 FILLER_58_97
*1742 FILLER_59_10
*1743 FILLER_59_105
*1744 FILLER_59_111
*1745 FILLER_59_113
*1746 FILLER_59_125
*1747 FILLER_59_137
*1748 FILLER_59_145
*1749 FILLER_59_150
*1750 FILLER_59_157
*1751 FILLER_59_164
*1752 FILLER_59_172
*1753 FILLER_59_179
*1754 FILLER_59_18
*1755 FILLER_59_186
*1756 FILLER_59_3
*1757 FILLER_59_40
*1758 FILLER_59_52
*1759 FILLER_59_57
*1760 FILLER_59_69
*1761 FILLER_59_81
*1762 FILLER_59_93
*1763 FILLER_5_10
*1764 FILLER_5_106